/*--------------------------------*- C++ -*----------------------------------*\
| =========                 |                                                 |
| \\      /  F ield         | OpenFOAM: The Open Source CFD Toolbox           |
|  \\    /   O peration     | Version:  2412                                  |
|   \\  /    A nd           | Website:  www.openfoam.com                      |
|    \\/     M anipulation  |                                                 |
\*---------------------------------------------------------------------------*/
FoamFile
{
    version     2.0;
    format      ascii;
    arch        "LSB;label=32;scalar=64";
    class       polyBoundaryMesh;
    location    "constant/rightSolid/polyMesh";
    object      boundary;
}
// * * * * * * * * * * * * * * * * * * * * * * * * * * * * * * * * * * * * * //

6
(
    maxX
    {
        type            patch;
        nFaces          10;
        startFace       237;
    }
    minZ
    {
        type            wall;
        inGroups        1(wall);
        nFaces          13;
        startFace       247;
    }
    maxZ
    {
        type            wall;
        inGroups        1(wall);
        nFaces          13;
        startFace       260;
    }
    rightSolid_to_bottomWater
    {
        type            mappedWall;
        inGroups        1(wall);
        nFaces          130;
        startFace       273;
        sampleMode      nearestPatchFace;
        sampleRegion    bottomWater;
        samplePatch     bottomWater_to_rightSolid;
    }
    rightSolid_to_topAir
    {
        type            mappedWall;
        inGroups        1(wall);
        nFaces          130;
        startFace       403;
        sampleMode      nearestPatchFace;
        sampleRegion    topAir;
        samplePatch     topAir_to_rightSolid;
    }
    rightSolid_to_heater
    {
        type            mappedWall;
        inGroups        1(wall);
        nFaces          10;
        startFace       533;
        sampleMode      nearestPatchFace;
        sampleRegion    heater;
        samplePatch     heater_to_rightSolid;
    }
)

// ************************************************************************* //
