FoamFile
{
    version     2.0;
    format      ascii;
    class       dictionary;
    object      fvOptions;
}
centralFin
{
    type            explicitPorositySource;
    explicitPorositySourceCoeffs
    {
        selectionMode   cellZone;
        cellZone        allFinCells;
        type            DarcyForchheimer;
        DarcyForchheimerCoeffs
        {
            d   d [0 -2 0 0 0 0 0] (1e4 1e4 1e4);
            f   f [0 -1 0 0 0 0 0] (0 0 0);
            coordinateSystem
            {
                type    cartesian;
                origin  (0 0 0);
                coordinateRotation
                {
                    type    axesRotation;
                    e1  (1 0 0);
                    e2  (0 1 0);
                }
            }
        }
    }
}
